           6
 
C         -5.7548010814         0.7395371240         0.4232444587
N         -1.2964418748         0.1612451243         0.0943309772
H         -6.6293860927         1.8743835517         2.0066035641
H         -7.1012223737        -0.0044598204        -1.0579503737
H         -0.5019614488        -0.8273691932        -1.4258506543
H         -0.0622137066         0.9569552938         1.4219919268
