           6
 
C         -5.2244799264        -0.5735468575         2.0347095108
N         -4.5936575136        -3.2175266973         2.9624525782
H         -5.0814385147         0.5588707922         3.7047538465
H         -5.8979956614         0.8197560854         0.3245880645
H         -5.0070266369        -5.1640960533         1.7201299175
H         -3.6930531728        -4.5214317565         4.1994661325
