        16

         C    -0.22215191     1.45258743     0.00009900
         C     0.83479367     0.49718980     0.00018200
         C     0.54127579    -0.84209267    -0.00004900
         N    -0.68631573    -1.41525444    -0.00003000
         C    -1.67203134    -0.56828178    -0.00002400
         N    -1.48160042     0.78253569     0.00004400
         N     2.21498313     0.67611573    -0.00001900
         C     2.72558593    -0.50887180     0.00003700
         N     1.73218332    -1.48907441     0.00000000
         N    -2.94016884    -1.01834560    -0.00014300
         O    -0.20645992     2.66413195    -0.00015100
         H     3.75971552    -0.75318670     0.00010900
         H     1.84933527    -2.47733102    -0.00020300
         H    -2.26575011     1.40335145    -0.00038800
         H    -3.73128953    -0.41598084     0.00172800
         H    -3.07874279    -2.00492621    -0.00048200
