   16

 C    -0.222152     1.452588     0.000099
 C     0.834794     0.497190     0.000182
 C     0.541276    -0.842093    -0.000049
 N    -0.686316    -1.415255    -0.000030
 C    -1.672032    -0.568282    -0.000024
 N    -1.481601     0.782536     0.000044
 N     2.214984     0.676116    -0.000019
 C     2.725587    -0.508872     0.000037
 N     1.732184    -1.489075     0.000000
 N    -2.940170    -1.018346    -0.000143
 O    -0.206460     2.664133    -0.000151
 H     3.759717    -0.753187     0.000109
 H     1.849336    -2.477332    -0.000203
 H    -2.265751     1.403352    -0.000388
 H    -3.731291    -0.415981     0.001728
 H    -3.078744    -2.004927    -0.000482
