        26

         W     0.05877998     0.74155871    -0.10427096
         S     1.35509747    -0.58980477     1.61989236
         C     2.87090587    -0.96274962     0.85959966
         C     3.18062375    -0.55229378    -0.41770084
         S     2.09594617     0.47465481    -1.34216047
         C     3.79737750    -1.73696232     1.62673336
         N     4.53264421    -2.36025907     2.28107010
         C     4.41940326    -0.87537965    -1.04409759
         N     5.42140186    -1.11297456    -1.59112137
         S    -1.98725322     0.18827493     1.42897844
         C    -2.93904284    -0.95607162     0.51437080
         C    -2.48644902    -1.52159540    -0.65245874
         S    -0.92036664    -1.15837054    -1.36249246
         C    -4.22652033    -1.27058450     1.04338259
         N    -5.27393092    -1.48830541     1.50756641
         C    -3.27676971    -2.46594903    -1.37389546
         N    -3.89532646    -3.23705772    -1.99213721
         O    -1.70878333     3.25192872     0.17332893
         H    -2.49136002     2.85577987     0.60563276
         C    -0.08212797     2.14823215    -1.49232341
         H     0.42138483     2.56115499    -2.35930407
         C    -1.35047347     2.12816616    -0.96087362
         H    -2.31840609     1.96453523    -1.42855844
         H    -0.88700665     2.97411383     0.88406065
         O     0.10084296     2.24221712     1.34919347
         H     0.15930994     1.96114823     2.27247810
