           6
 
C         -1.8345437790         0.2674299700         0.1672999182
N          0.5977448278        -0.0852539526        -0.0707649347
H        -21.6859043365         1.4986472153         0.6989867736
H        -21.2619728309         3.9611115559         2.3427542326
H          0.8957276754        -2.0685530104        -0.0701710154
H          1.4025713418         1.7529983558        -0.2911011350
