        86

        Cu     2.50447901     5.92181367     8.61515960
        Cu     3.31296169     8.74857555    10.06030803
         O     3.94048645     7.23380215     9.01323745
         O     2.35718907     7.09111420    10.14768500
         N     3.05540480     5.23445094     6.65985937
         N     0.48651281     5.51991082     8.41062468
         N     3.20055774     4.09739238     9.69696918
         N     4.94343305    10.11527301     9.74057816
         N     2.71198593     9.48354126    11.87834532
         N     1.92295024     9.93628208     8.65023259
         C     3.95069144     6.25364753     5.98020564
         C     5.16139297     6.69558436     6.76856733
         C     6.36435049     6.01332963     6.67922337
         C     7.47126705     6.41471747     7.44485407
         C     7.36466610     7.48954605     8.32508172
         C     6.18598556     8.23121076     8.41594768
         C     5.06092501     7.84347891     7.62582399
         C     6.19706456     9.35616331     9.43787828
         C    -0.21077192     5.15200097     9.50253225
         C    -1.57585238     4.89059007     9.46001827
         C    -2.23943212     5.01984302     8.23940475
         C    -1.51483440     5.40415987     7.11107420
         C    -0.14439594     5.65082577     7.22367815
         C     0.70436372     6.04411962     6.03739962
         C     1.85401527     5.05601301     5.77546572
         C     3.45744464     4.21730134    11.01145666
         C     3.90814546     3.15371376    11.78834735
         C     4.10832638     1.91924024    11.17049160
         C     3.85391448     1.79769929     9.80450214
         C     3.39649166     2.90991185     9.09274942
         C     3.09722878     2.83408188     7.61121100
         C     3.78245051     3.92469545     6.76317833
         C     1.41807144     9.36318531    12.22908718
         C     0.94679363     9.74694516    13.47895969
         C     1.85569127    10.26717395    14.40075532
         C     3.19673674    10.38336791    14.03718947
         C     3.60209058     9.97973707    12.76331197
         C     5.03843101    10.08435402    12.30874915
         C     5.20671195    10.88569071    11.00654166
         C     0.78762769     9.30866033     8.29280873
         C    -0.16669493     9.88057211     7.45684206
         C     0.07408297    11.16117660     6.95681426
         C     1.24923251    11.81391034     7.32251711
         C     2.15267315    11.17796959     8.18284277
         C     3.39642266    11.89574931     8.65801059
         C     4.71145314    11.10156962     8.62774460
         H     3.32021369     7.11842119     5.75461173
         H     4.27153332     5.82329170     5.02064902
         H     6.46644445     5.17182296     6.00005163
         H     8.41014868     5.87639568     7.36020410
         H     8.22055176     7.76207294     8.93774148
         H     6.53144043     8.91221149    10.37996791
         H     6.97420125    10.08476702     9.15482139
         H     0.35656586     5.07324400    10.42361189
         H    -2.10007417     4.59174119    10.36131992
         H    -3.30441770     4.82141410     8.16492678
         H    -2.00351821     5.50794983     6.14756558
         H     1.09471357     7.06132022     6.17854556
         H     0.07511597     6.07809660     5.14261697
         H     1.47732342     4.04080441     5.90844767
         H     2.17848314     5.13538498     4.72948714
         H     3.28403871     5.20654295    11.42550850
         H     4.09772938     3.29218970    12.84760494
         H     4.46105024     1.06451358    11.74002837
         H     4.00650842     0.85151966     9.29475934
         H     2.01000421     2.84256188     7.46158606
         H     3.43899464     1.86569226     7.23218715
         H     4.76407012     4.13085937     7.19042517
         H     3.93712245     3.54616160     5.74198074
         H     0.76130570     8.93662548    11.47913048
         H    -0.10490596     9.63753820    13.72027459
         H     1.52692340    10.57778783    15.38784893
         H     3.92765045    10.78148275    14.73349019
         H     5.62220178    10.58387983    13.08789784
         H     5.46726184     9.07760842    12.20920819
         H     6.22512755    11.29383655    10.95237168
         H     4.52655722    11.73769137    11.03331865
         H    -0.64079675    11.64546041     6.29827852
         H     1.46412042    12.81220195     6.95422426
         H     3.55133760    12.77682096     8.02646984
         H     5.54604981    11.81739234     8.65153659
         H     4.30916030     8.57930962     7.36594810
         H    -1.07470958     9.33936832     7.21126516
         H     0.65959274     8.31535872     8.71330057
         H     3.20585174    12.29370515     9.66282819
         H     4.79080711    10.56366284     7.68108097
